Program Version,EnergyPlus, Version 9.2.0-921312fa1d, YMD=2021.12.07 11:45,
   ** Warning ** CheckEnvironmentSpecifications: SimulationControl specified doing design day simulations, but no design environments specified.
   **   ~~~   ** ...No design environment results produced. For these results, add appropriate SizingPeriod:* objects for your simulation.
   ** Warning ** ProcessScheduleInput: Schedule:Constant="ALWAYS OFF DISCRETE", Blank Schedule Type Limits Name input -- will not be validated.
   ** Warning ** ProcessScheduleInput: Schedule:Constant="ALWAYS ON CONTINUOUS", Blank Schedule Type Limits Name input -- will not be validated.
   ** Warning ** GetHTSurfaceData: Surfaces with interface to Ground found but no "Ground Temperatures" were input.
   **   ~~~   ** Found first in surface=SUELO_C1
   **   ~~~   ** Defaults, constant throughout the year of (18.0) will be used.
   ** Severe  ** FenestrationSurface:Detailed="TVS_C1", Exterior boundary condition = Ground is not allowed with windows.
   ** Severe  ** FenestrationSurface:Detailed="TVS_C2", Exterior boundary condition = Ground is not allowed with windows.
   ** Severe  ** FenestrationSurface:Detailed="VENTANA_BASE_SUR", Exterior boundary condition = Ground is not allowed with windows.
   **  Fatal  ** GetSurfaceData: Errors discovered, program terminates.
   ...Summary of Errors that led to program termination:
   ..... Reference severe error count=3
   ..... Last severe error=FenestrationSurface:Detailed="VENTANA_BASE_SUR", Exterior boundary condition = Ground is not allowed with windows.
   ************* Warning:  Node connection errors not checked - most system input has not been read (see previous warning).
   ************* Fatal error -- final processing.  Program exited before simulations began.  See previous error messages.
   ************* EnergyPlus Warmup Error Summary. During Warmup: 0 Warning; 0 Severe Errors.
   ************* EnergyPlus Sizing Error Summary. During Sizing: 0 Warning; 0 Severe Errors.
   ************* EnergyPlus Terminated--Fatal Error Detected. 4 Warning; 3 Severe Errors; Elapsed Time=00hr 00min  0.87sec
