Program Version,EnergyPlus, Version 9.2.0-921312fa1d, YMD=2021.12.07 11:45
