Program Version,EnergyPlus, Version 9.5.0-de239b2e5f, YMD=2021.12.07 22:41,
   ** Warning ** GetHTSurfaceData: Surfaces with interface to Ground found but no "Ground Temperatures" were input.
   **   ~~~   ** Found first in surface=SUELO_C1
   **   ~~~   ** Defaults, constant throughout the year of (18.0) will be used.
   ** Warning ** An AirflowNetwork:Multizone:Surface object has an air-flow opening corresponding to
   **   ~~~   ** window or door = VENTANA_BASE_SUR, which is within 
   **   ~~~   ** 10 deg of being horizontal. Airflows through large horizontal openings are poorly
   **   ~~~   ** modeled in the AirflowNetwork model resulting in only one-way airflow.
   ************* Testing Individual Branch Integrity
   ************* All Branches passed integrity testing
   ************* Testing Individual Supply Air Path Integrity
   ************* All Supply Air Paths passed integrity testing
   ************* Testing Individual Return Air Path Integrity
   ************* All Return Air Paths passed integrity testing
   ************* No node connection errors were found.
   ************* Beginning Simulation
   ************* Simulation Error Summary *************
   ************* There are 28 unused schedules in input.
   ************* There are 28 unused week schedules in input.
   ************* There are 120 unused day schedules in input.
   ************* Use Output:Diagnostics,DisplayUnusedSchedules; to see them.
   ************* EnergyPlus Warmup Error Summary. During Warmup: 0 Warning; 0 Severe Errors.
   ************* EnergyPlus Sizing Error Summary. During Sizing: 0 Warning; 0 Severe Errors.
   ************* EnergyPlus Completed Successfully-- 2 Warning; 0 Severe Errors; Elapsed Time=00hr 00min  2.33sec
